! wB97X-D3 def2-SV(P) def2/J RIJCOSX noautostart miniprint
%maxcore     8000
%pal nprocs   4 end
%cpcm
smd true
SMDsolvent "water"
end
%tddft
  Mode sTDDFT
  Ethresh 7.0
  PThresh 1e-4
  PTLimit 30
  triplets false
  maxcore 8000
end
* xyz   0   1
H     14.61100000   -0.97400000   -0.76400000
C     14.14600000   -1.48700000    0.11800000
H     14.92300000   -2.16700000    0.55500000
C     13.73200000   -0.46100000    1.14600000
H     14.63000000    0.11800000    1.48900000
H     13.30700000   -0.98500000    2.04200000
C     12.68800000    0.51500000    0.59700000
C     13.35900000    1.50500000   -0.35000000
H     12.62700000    2.27200000   -0.69800000
H     13.77000000    0.97600000   -1.24300000
H     14.19500000    2.02700000    0.17400000
C     12.10300000    1.28600000    1.77900000
H     12.92600000    1.76600000    2.36100000
H     11.54200000    0.59700000    2.45300000
H     11.40700000    2.08200000    1.42300000
C     11.59000000   -0.22000000   -0.13700000
C     11.73200000   -1.48900000   -0.57700000
C     12.95600000   -2.30400000   -0.33400000
H     13.22800000   -2.86400000   -1.26900000
H     12.70700000   -3.07200000    0.45000000
C     10.67500000   -2.21100000   -1.32800000
H     10.06600000   -2.83300000   -0.62400000
H     11.12600000   -2.89300000   -2.09100000
H      9.98700000   -1.50400000   -1.85500000
C     10.38600000    0.57300000   -0.36300000
H     10.57500000    1.59700000   -0.73200000
C      9.13600000    0.14100000   -0.13000000
H      8.97100000   -0.88200000    0.25500000
C      7.93000000    0.93200000   -0.34000000
C      8.11600000    2.34900000   -0.73700000
H      8.80500000    2.86000000   -0.01800000
H      7.15600000    2.91700000   -0.75300000
H      8.57100000    2.40200000   -1.75800000
C      6.72400000    0.34300000   -0.16700000
H      6.69400000   -0.72000000    0.14000000
C      5.43400000    0.96100000   -0.34700000
H      5.41500000    2.00800000   -0.69500000
C      4.28500000    0.29800000   -0.11300000
H      4.31900000   -0.75200000    0.23300000
C      2.95100000    0.85400000   -0.28100000
C      2.86000000    2.26900000   -0.71300000
H      3.40400000    2.92600000    0.01200000
H      1.80600000    2.63000000   -0.77900000
H      3.33400000    2.39200000   -1.72000000
C      1.87900000    0.06300000   -0.03800000
H      2.05500000   -0.98000000    0.28700000
C      0.49200000    0.43500000   -0.16000000
H      0.26200000    1.45300000   -0.51700000
C     -0.51100000   -0.41600000    0.14400000
H     -0.27800000   -1.43400000    0.50000000
C     -1.89900000   -0.05100000    0.01700000
H     -2.08100000    0.96500000   -0.38400000
C     -2.96500000   -0.82100000    0.33700000
C     -2.86600000   -2.19300000    0.89000000
H     -3.37700000   -2.24300000    1.88400000
H     -3.36600000   -2.92000000    0.20100000
H     -1.80900000   -2.52300000    1.03100000
C     -4.30400000   -0.28700000    0.13400000
H     -4.34800000    0.73800000   -0.27600000
C     -5.44600000   -0.94800000    0.40700000
H     -5.41600000   -1.97000000    0.81900000
C     -6.74500000   -0.36100000    0.18300000
H     -6.73100000    0.67800000   -0.19900000
C     -7.94000000   -0.95700000    0.40100000
C     -8.09900000   -2.34400000    0.90000000
H     -7.14200000   -2.91800000    0.87300000
H     -8.84600000   -2.89600000    0.27500000
H     -8.46900000   -2.32800000    1.95700000
C     -9.16100000   -0.20500000    0.13800000
H     -9.02000000    0.76700000   -0.37000000
C    -10.39700000   -0.61200000    0.46800000
H    -10.55900000   -1.57800000    0.97700000
C    -11.61200000    0.14800000    0.18500000
C    -12.69300000   -0.63000000   -0.52800000
C    -12.24600000   -0.89000000   -1.96500000
H    -12.99300000   -1.53500000   -2.48600000
H    -11.25700000   -1.40800000   -1.97100000
H    -12.14800000    0.07100000   -2.52400000
C    -12.93300000   -1.97300000    0.15800000
H    -12.08800000   -2.67600000   -0.04000000
H    -13.87000000   -2.43700000   -0.23600000
H    -13.03800000   -1.83600000    1.26000000
C    -14.02600000    0.12700000   -0.53400000
H    -14.69900000   -0.33000000   -1.30600000
H    -14.52200000    0.00000000    0.46500000
C    -13.85200000    1.60000000   -0.81500000
H    -14.85400000    2.10300000   -0.83000000
H    -13.38900000    1.74500000   -1.82700000
C    -12.97900000    2.23800000    0.24300000
H    -12.68800000    3.27200000   -0.08400000
H    -13.56200000    2.34400000    1.19900000
C    -11.74900000    1.44700000    0.52800000
C    -10.70200000    2.21600000    1.24500000
H    -11.17000000    2.92300000    1.97500000
H    -10.10400000    2.81700000    0.51400000
H    -10.00200000    1.54500000    1.80200000
*
